[General]
network = EthNet
sim-time-limit = 10s

#this is a comment line to push changes into the repository

#CLIENT APPLICATIONS
**.client.numApps=1 #number of applications on clients
**.client.app[0].typename="TcpSessionApp" #client application type
**.client.app[0].connectAddress="server" #desination address
**.client.app[0].connectPort=1000 #destination Port
**.client.app[0].sendBytes=1MB #amount of data to send



#SERVER SIDE
**.server.numApps=1 #number of applications on server
**.server.app[0].typename="TcpEchoApp" #client application type
**.server.app[0].localPort=1000 #destination Port